#

@<TRIPOS>MOLECULE
Molecule Name
 6 5 0 0 0
SMALL
USER_CHARGES

@<TRIPOS>ATOM
      1 C           0.0078    0.2204    1.1099 C.2       1 LIG         0.1063
      2 H           0.0078    1.2994    1.0249 H         1 LIG         0.0988
      3 H1          0.0078   -0.3506    2.0259 H         1 LIG         0.0988
      4 O           0.0078   -0.4736    0.0469 O.2       1 LIG        -0.3115
      5 O1          0.0078    0.1774   -1.1271 O.2       1 LIG        -0.3443
      6 H2          0.2837   -0.6963   -1.8054 H         1 LIG         0.3519
@<TRIPOS>BOND
     1    1    2 1  
     2    1    3 1  
     3    1    4 2  
     4    4    5 1  
     5    5    6 1  
